5
Lattice="21.258236 0.0 0.0 0.0 21.258236 0.0 0.0 0.0 21.258236" Properties=species:S:1:pos:R:3:forces:R:3 energy=-23.74008543 stress="0.00013333111794711818 0.000164$
C	10.62912000	 10.62912000	  10.62912000       1.82976500       1.82976500       1.82976500
H	11.35824000	 11.35824000	  11.35824000	   -1.97245500      -1.97245500      -1.97245500
H	10.00000000	 10.00000000	  11.25824000	   -0.04013700      -0.04013700       0.22296300
H	11.25824000	 10.00000000	  10.00000000       0.22296300      -0.04013700      -0.04013700
H	10.00000000	 11.25824000	  10.00000000	   -0.04013700       0.22296300      -0.04013700
