5
Lattice="21.258236 0.0 0.0 0.0 21.258236 0.0 0.0 0.0 21.258236" Properties=species:S:1:pos:R:3
C	10.62912000	 10.62912000	  10.62912000
H	11.35824000	 11.35824000	  11.35824000
H	10.00000000	 10.00000000	  11.25824000
H	11.25824000	 10.00000000	  10.00000000
H	10.00000000	 11.25824000	  10.00000000
